Circuit: * C:\Users\shash\OneDrive\Desktop\LTSpice\Vivek_22nm.asc

Warning: toxe, toxp and dtox all given and toxe != toxp + dtox; dtox ignored.
Direct Newton iteration failed to find .op point.  (Use ".option noopiter" to skip.)
Starting Gmin stepping
Gmin = 10
Gmin = 1.07374
Gmin = 0.115292
Gmin = 0.0123794
Gmin = 0.00132923
Gmin = 0.000142725
Gmin = 1.5325e-05
Gmin = 1.6455e-06
Gmin = 1.76685e-07
Gmin = 1.89714e-08
Gmin = 2.03704e-09
Gmin = 2.18725e-10
Gmin = 2.34854e-11
Gmin = 2.52173e-12
Gmin = 2.70769e-13
Gmin = 0
Gmin stepping succeeded in finding the operating point.


Date: Tue Nov  7 23:26:59 2023
Total elapsed time: 0.307 seconds.

tnom = 27
temp = 27
method = trap
totiter = 389
traniter = 0
tranpoints = 0
accept = 0
rejected = 0
matrix size = 133
fillins = 6
solver = Normal
Avg thread counts: 6.2/0.0/8.0/4.4
Matrix Compiler1:    1132 opcodes
Matrix Compiler2: 16.07 KB object code size  3.0/5.7/[1.2]

